[TITLE]

[JUNCTIONS]
 1                                    20.0000
 2                                    20.0000
 3                                    20.0000
 4                                    20.0000
 5                                    20.0000
 6                                    20.0000
 7                                    15.0000
 8                                    15.0000
 9                                    15.0000
 10                                   20.0000
 11                                   20.0000
 12                                   15.0000
 13                                   10.0000
 14                                   15.0000
 15                                   20.0000
 16                                   20.0000
 17                                   15.0000
 18                                   15.0000
 19                                   15.0000
 20                                   20.0000
 21                                   20.0000
 22                                   20.0000
 23                                   20.0000
 24                                   20.0000
 25                                   20.0000

[RESERVOIRS]
 26                                   50.0000                                
 27                                   50.0000                                

[TANKS]

[PIPES]
 1                               1                               2                                  1000.0000     250.0000     130.0000       0.0000       
 2                               2                               3                                  1000.0000     250.0000     130.0000       0.0000       
 3                               3                               4                                  1000.0000     250.0000     130.0000       0.0000       
 4                               4                               5                                  1000.0000     250.0000     130.0000       0.0000       
 5                               6                               7                                  1000.0000     250.0000     130.0000       0.0000       
 6                               7                               8                                  1000.0000     250.0000     130.0000       0.0000       
 7                               8                               9                                  1000.0000     250.0000     130.0000       0.0000       
 8                               9                               10                                 1000.0000     250.0000     130.0000       0.0000       
 9                               11                              12                                 1000.0000     250.0000     130.0000       0.0000       
 10                              12                              13                                 1000.0000     250.0000     130.0000       0.0000       
 11                              13                              14                                 1000.0000     250.0000     130.0000       0.0000       
 12                              14                              15                                 1000.0000     250.0000     130.0000       0.0000       
 13                              16                              17                                 1000.0000     250.0000     130.0000       0.0000       
 14                              17                              18                                 1000.0000     250.0000     130.0000       0.0000       
 15                              18                              19                                 1000.0000     250.0000     130.0000       0.0000       
 16                              19                              20                                 1000.0000     250.0000     130.0000       0.0000       
 17                              21                              22                                 1000.0000     250.0000     130.0000       0.0000       
 18                              22                              23                                 1000.0000     250.0000     130.0000       0.0000       
 19                              23                              24                                 1000.0000     250.0000     130.0000       0.0000       
 21                              1                               6                                  1000.0000     250.0000     130.0000       0.0000       
 23                              3                               8                                  1000.0000     250.0000     130.0000       0.0000       
 24                              4                               9                                  1000.0000     250.0000     130.0000       0.0000       
 25                              5                               10                                 1000.0000     250.0000     130.0000       0.0000       
 26                              6                               11                                 1000.0000     250.0000     130.0000       0.0000       
 27                              7                               12                                 1000.0000     250.0000     130.0000       0.0000       
 29                              9                               14                                 1000.0000     250.0000     130.0000       0.0000       
 30                              10                              15                                 1000.0000     250.0000     130.0000       0.0000       
 31                              11                              16                                 1000.0000     250.0000     130.0000       0.0000       
 32                              12                              17                                 1000.0000     250.0000     130.0000       0.0000       
 33                              13                              18                                 1000.0000     250.0000     130.0000       0.0000       
 34                              14                              19                                 1000.0000     250.0000     130.0000       0.0000       
 35                              15                              20                                 1000.0000     250.0000     130.0000       0.0000       
 37                              17                              22                                 1000.0000     250.0000     130.0000       0.0000       
 38                              18                              23                                 1000.0000     250.0000     130.0000       0.0000       
 39                              19                              24                                 1000.0000     250.0000     130.0000       0.0000       
 36                              16                              21                                 1000.0000     250.0000     130.0000       0.0000       
 22                              2                               7                                  1000.0000     250.0000     130.0000       0.0000       
 28                              8                               13                                 1000.0000     250.0000     130.0000       0.0000       
 20                              24                              25                                 1000.0000     250.0000     130.0000       0.0000       
 40                              20                              25                                 1000.0000     250.0000     130.0000       0.0000       
 41                              26                              1                                  2000.0000     250.0000     130.0000       0.0000       
 42                              27                              5                                  2000.0000     250.0000     130.0000       0.0000       

[PUMPS]

[VALVES]

[DEMANDS]
 1                                     2.00000                                
 2                                     2.00000                                
 3                                     2.00000                                
 4                                     2.00000                                
 5                                     2.00000                                
 6                                     2.00000                                
 7                                     2.00000                                
 8                                     2.00000                                
 9                                     2.00000                                
 10                                    2.00000                                
 11                                    2.00000                                
 12                                    2.00000                                
 13                                    2.00000                                
 14                                    2.00000                                
 15                                    2.00000                                
 16                                    2.00000                                
 17                                    2.00000                                
 18                                    2.00000                                
 19                                    2.00000                                
 20                                    2.00000                                
 21                                    2.00000                                
 22                                    2.00000                                
 23                                    2.00000                                
 24                                    2.00000                                
 25                                    2.00000                                

[EMITTERS]

[STATUS]

[PATTERNS]
;Demand Pattern
 1                                     1.0000

[CURVES]

[CONTROLS]

[RULES]

[QUALITY]

[SOURCES]

[MIXING]

[REACTIONS]
 ORDER  BULK            1.00
 ORDER  WALL            1
 ORDER  TANK            1.00
 GLOBAL BULK            0.000000
 GLOBAL WALL            0.000000

[ENERGY]
 GLOBAL EFFIC        75.0000
 DEMAND CHARGE       0.0000

[TIMES]
 DURATION            24:00:00
 HYDRAULIC TIMESTEP  1:00:00
 QUALITY TIMESTEP    0:05:00
 REPORT TIMESTEP     1:00:00
 REPORT START        0:00:00
 PATTERN TIMESTEP    1:00:00
 PATTERN START       0:00:00
 RULE TIMESTEP       0:06:00
 START CLOCKTIME     0:00:00
 STATISTIC           NONE

[OPTIONS]
 UNITS               LPS
 PRESSURE            METERS
 HEADLOSS            H-W
 UNBALANCED          CONTINUE 100
 QUALITY             NONE
 DEMAND MULTIPLIER   1.0000
 EMITTER EXPONENT    0.5000
 VISCOSITY           1.000000
 DIFFUSIVITY         1.000000
 SPECIFIC GRAVITY    1.000000
 TRIALS              200
 ACCURACY            0.01000000
 TOLERANCE           0.01000000
 CHECKFREQ           2
 MAXCHECK            10
 DAMPLIMIT           0.01000000
 DEMAND MODEL        PDA
 MINIMUM PRESSURE    0.0000
 REQUIRED PRESSURE   0.1000
 PRESSURE EXPONENT   0.5000

[REPORT]
 PAGESIZE            0
 STATUS              YES
 SUMMARY             NO
 ENERGY              NO
 MESSAGES            YES
 NODES               NONE
 LINKS               NONE
 Elevation           NO
 Demand              PRECISION 2
 Head                PRECISION 2
 Pressure            PRECISION 2
 Quality             NO
 Length              NO
 Diameter            NO
 Flow                PRECISION 2
 Velocity            PRECISION 2
 Headloss            PRECISION 2
 Quality             NO
 State               NO
 Setting             NO
 Reaction            NO

[COORDINATES]
 1                                  2000.000000    7000.000000  
 2                                  3000.000000    7000.000000
 3                                  4000.000000    7000.000000
 4                                  5000.000000    7000.000000
 5                                  6000.000000    7000.000000
 6                                  2000.000000    6000.000000
 7                                  3000.000000    6000.000000
 8                                  4000.000000    6000.000000
 9                                  5000.000000    6000.000000
 10                                 6000.000000    6000.000000
 11                                 2000.000000    5000.000000
 12                                 3000.000000    5000.000000
 13                                 4000.000000    5000.000000
 14                                 5000.000000    5000.000000
 15                                 6000.000000    5000.000000
 16                                 2000.000000    4000.000000
 17                                 3000.000000    4000.000000
 18                                 4000.000000    4000.000000
 19                                 5000.000000    4000.000000
 20                                 6000.000000    4000.000000
 21                                 2000.000000    3000.000000
 22                                 3000.000000    3000.000000
 23                                 4000.000000    3000.000000
 24                                 5000.000000    3000.000000
 25                                 6000.000000    3000.000000
 26                                 2000.000000    8000.000000
 27                                 6000.000000    8000.000000

[VERTICES]

[TAGS]



[LABELS]
;X-Coord           Y-Coord          Label & Anchor Node




[BACKDROP]
 DIMENSIONS     	0.00            	0.00            	10000.00        	10000.00        
 UNITS          	Ninguno
 FILE           	
 OFFSET         	0.00            	0.00            

[END]
